OPT_V8/My_Campus_6/powerflow_results_t1.txt
Pandapower Network Debug Info
==================================================

BUS:
       vm_pu  va_degree      p_mw    q_mvar
0   0.993160   0.111774  0.001191  0.001168
1   0.988919   0.191059  0.001221  0.001819
2   0.984851   0.267124  0.002061  0.003036
3   0.989695   0.173360  0.002427  0.003474
4   0.988704   0.288299  0.002915  0.005706
5   0.991270   0.144743  0.003989  0.006394
6   0.989617   0.140595  0.001208  0.000860
7   0.997136   0.022093  0.002156  0.002221
8   0.997776   0.045677  0.002039  0.002667
9   0.999892   0.000906  0.010736  0.009072
10  0.999880   0.001013  0.009098  0.008148
11  0.999871   0.001135  0.010090  0.012223
12  0.999764   0.001042  0.011863  0.005384
13  0.999746   0.001176  0.010339  0.010586
14  0.999735   0.001157  0.015081  0.011070
15  0.999933   0.000635  0.000000  0.000000
16  0.999933   0.000641  0.000000  0.000000
17  0.999770   0.001119  0.000000  0.000000
18  0.999769   0.001129  0.000000  0.000000
19  1.000000   0.000000 -0.036959 -0.044031
20  1.000000   0.000006  0.000000  0.000000
21  1.000000   0.000000 -0.049762 -0.050007
22  1.000000   0.000007  0.000000  0.000000
--------------------------------------------------

LINE:
    p_from_mw  q_from_mvar   p_to_mw  q_to_mvar         pl_mw       ql_mvar  i_from_ka   i_to_ka      i_ka  vm_from_pu  va_from_degree  vm_to_pu  va_to_degree  loading_percent
0    0.036949     0.040031 -0.036946  -0.040029  2.902859e-06  2.263407e-06   0.002097  0.002097  0.002097    1.000000        0.000006  0.999933      0.000635         0.911663
1    0.049752     0.046007 -0.049740  -0.045997  1.235163e-05  9.630770e-06   0.002608  0.002608  0.002608    1.000000        0.000007  0.999770      0.001119         1.134010
2    0.029926     0.029444 -0.029924  -0.029443  1.363097e-06  1.062829e-06   0.001616  0.001616  0.001616    0.999933        0.000635  0.999892      0.000906         0.702610
3    0.011863     0.005384 -0.011863  -0.005384  5.872144e-08  4.578607e-08   0.000502  0.000502  0.000502    0.999770        0.001119  0.999764      0.001042         0.218068
4    0.025421     0.021657 -0.025421  -0.021656  6.100978e-07  4.757033e-07   0.001286  0.001286  0.001286    0.999770        0.001119  0.999746      0.001176         0.558996
5    0.007011     0.009585 -0.006945  -0.009533  6.596756e-05  5.143599e-05   0.017142  0.017142  0.017142    0.999933        0.000641  0.993160      0.111774         7.452870
6    0.005262     0.007305 -0.005199  -0.007255  6.290270e-05  4.904627e-05   0.012997  0.012997  0.012997    0.999769        0.001129  0.991270      0.144743         5.650754
7    0.002162     0.002226 -0.002156  -0.002221  6.508832e-06  5.075043e-06   0.004480  0.004480  0.004480    0.999769        0.001129  0.997136      0.022093         1.947852
8    0.005022     0.008426 -0.005005  -0.008413  1.655107e-05  1.290514e-05   0.014161  0.014161  0.014161    0.999769        0.001129  0.997776      0.045677         6.157144
9   -0.019188    -0.020371  0.019188   0.020371  2.708888e-07  2.112164e-07   0.001077  0.001077  0.001077    0.999880        0.001013  0.999892      0.000906         0.468370
10  -0.010090    -0.012223  0.010090   0.012223  1.228849e-07  9.581536e-08   0.000610  0.000610  0.000610    0.999871        0.001135  0.999880      0.001013         0.265268
11  -0.015081    -0.011070  0.015082   0.011070  1.712577e-07  1.335324e-07   0.000720  0.000720  0.000720    0.999735        0.001157  0.999746      0.001176         0.313156
12  -0.003294    -0.004865  0.003315   0.004882  2.088380e-05  1.628344e-05   0.008576  0.008576  0.008576    0.988919        0.191059  0.993160      0.111774         3.728491
13  -0.002427    -0.003474  0.002439   0.003484  1.224315e-05  9.546184e-06   0.006181  0.006181  0.006181    0.989695        0.173360  0.993160      0.111774         2.687277
14  -0.002061    -0.003036  0.002073   0.003046  1.255750e-05  9.791291e-06   0.005378  0.005378  0.005378    0.984851        0.267124  0.988919      0.191059         2.338171
15   0.002966     0.005746 -0.002915  -0.005706  5.110589e-05  3.984810e-05   0.009354  0.009354  0.009354    0.997776        0.045677  0.988704      0.288299         4.067107
16  -0.001208    -0.000860  0.001210   0.000862  1.955304e-06  1.524583e-06   0.002163  0.002163  0.002163    0.989617        0.140595  0.991270      0.144743         0.940468
--------------------------------------------------

TRAFO:
    p_hv_mw  q_hv_mvar   p_lv_mw  q_lv_mvar    pl_mw   ql_mvar   i_hv_ka   i_lv_ka  vm_hv_pu  va_hv_degree  vm_lv_pu  va_lv_degree  loading_percent
0  0.007021   0.010585 -0.007011  -0.009585  0.00001  0.001000  0.000489  0.017142  0.999933      0.000635  0.999933      0.000641         0.127023
1  0.012455   0.018956 -0.012445  -0.017957  0.00001  0.000999  0.000873  0.031542  0.999770      0.001119  0.999769      0.001129         0.226872
2  0.036959   0.044031 -0.036949  -0.040031  0.00001  0.004000  0.000474  0.002097  1.000000      0.000000  1.000000      0.000006         0.143717
3  0.049762   0.050007 -0.049752  -0.046007  0.00001  0.004000  0.000582  0.002608  1.000000      0.000000  1.000000      0.000007         0.176369
--------------------------------------------------
